LAMMPS (12 Dec 2018)
variable        dcdfreq index 50
variable        outputname index step4.0_minimization

units           real
boundary        p p p

newton          off
pair_style      lj/charmmfsw/coul/long 10 12
pair_modify     mix arithmetic
kspace_style    pppm 1e-6

atom_style      full
bond_style      harmonic
angle_style     charmm
dihedral_style  charmmfsw
special_bonds   charmm
improper_style  harmonic
timestep        1

read_data       step3_input.data
Reading data file ...
  orthogonal box = (-24.0079 -24.0079 -24.0079) to (24.0079 24.0079 24.0079)
  reading atoms ...
  7200 atoms
  scanning bonds ...
  scanning angles ...
  scanning dihedrals ...
  reading bonds ...
  7100 bonds
  reading angles ...
  13000 angles
  reading dihedrals ...
  19300 dihedrals
Finding 1-2 1-3 1-4 neighbors ...

neighbor        2 bin
neigh_modify    delay 5 every 1

velocity        all create 285 68171 dist gaussian
fix             1 all nvt temp 285 285 100.0

thermo          50
thermo_style    custom step time xlo xhi ylo yhi zlo zhi etotal pe ke temp press ebond eangle edihed eimp evdwl ecoul elong temp vol
dump            1 all dcd 50 step4.0_minimization.dcd
dump_modify     1 unwrap yes
write_data      step4.0_minimization.data
System init for write_data ...
PPPM initialization ...
  G vector (1/distance) = 0.244516
  grid = 30 30 30
  stencil order = 5
  estimated absolute RMS force accuracy = 0.000352393
  estimated relative force accuracy = 1.0612e-06
  3d grid and FFT values/proc = 50653 27000
  update every 1 steps, delay 5 steps, check yes

min_style       cg
minimize        0.0 1.0e-8 10000 20000
PPPM initialization ...
  G vector (1/distance) = 0.244516
  grid = 30 30 30
  stencil order = 5
  estimated absolute RMS force accuracy = 0.000352393
  estimated relative force accuracy = 1.0612e-06
  3d grid and FFT values/proc = 50653 27000
Setting up cg style minimization ...
  Unit style    : real
  Current step  : 0
Step Time Xlo Xhi Ylo Yhi Zlo Zhi TotEng PotEng KinEng Temp Press E_bond E_angle E_dihed E_impro E_vdwl E_coul E_long Temp Volume
0            0     -24.0079      24.0079     -24.0079      24.0079     -24.0079      24.0079    28234.156    22118.384    6115.7727          285   -101085.18    13519.483    5092.8782    3229.2197            0   -2672.6883    12057.378   -9107.8867          285    110701.25
Averages over the last 80 of 159 rows, steps 3950 to 7857:
Xlo Xhi Ylo Yhi Zlo Zhi TotEng PotEng KinEng Temp Press E_bond E_angle E_dihed E_impro E_vdwl E_coul E_long Temp Volume
-24.0079 24.0079 -24.0079 24.0079 -24.0079 24.0079 9169.47 3053.69 6115.77 285 1626.09 92.9005 653.472 3398.29 0 -2544.79 10689.9 -9236.11 285 110701
Loop time of 1357.28 on 1 procs for 7857 steps with 7200 atoms

Minimization stats:
  Stopping criterion = linesearch alpha is zero
  Energy initial, next-to-last, final =
  Force two-norm initial, final = 3167.24 0.509175
  Force max component initial, final = 64.3221 0.0938109
  Final line search alpha, max atom move = 2.90207e-08 2.72246e-09
  Iterations, force evaluations = 7857 15762

write_dump      all custom step4.0_minimization.dump id type x y z vx vy vz ix iy iz
log log.step4.0_minimization
